*Heading
** Job name: abaqus_test7 Model name: Model-7
** Generated by: Abaqus/CAE 2023
*Preprint, echo=NO, model=NO, history=NO, contact=NO
**
** PARTS
**
*Part, name=bone
*Node
      1,         200.,         205.
      2,   190.070374,         205.
      3,   180.586304,         205.
      4,   171.527802,         205.
      5,   162.875793,         205.
      6,   154.612015,         205.
      7,   146.719055,         205.
      8,   139.180283,         205.
      9,   131.979782,         205.
     10,   125.102379,         205.
     11,   118.533592,         205.
     12,   112.259567,         205.
     13,   106.267067,         205.
     14,   100.543465,         205.
     15,   95.0766983,         205.
     16,   89.8552399,         205.
     17,   84.8680801,         205.
     18,   80.1047058,         205.
     19,   75.5550766,         205.
     20,   71.2096024,         205.
** ... 2684 like lines cut
*Element, type=CAX4R
   1,    1,    2,   54,   53
   2,    2,    3,   55,   54
   3,    3,    4,   56,   55
   4,    4,    5,   57,   56
   5,    5,    6,   58,   57
   6,    6,    7,   59,   58
   7,    7,    8,   60,   59
   8,    8,    9,   61,   60
   9,    9,   10,   62,   61
  10,   10,   11,   63,   62
  11,   11,   12,   64,   63
  12,   12,   13,   65,   64
  13,   13,   14,   66,   65
  14,   14,   15,   67,   66
  15,   15,   16,   68,   67
  16,   16,   17,   69,   68
  17,   17,   18,   70,   69
  18,   18,   19,   71,   70
  19,   19,   20,   72,   71
  20,   20,   21,   73,   72
** ... 2581 like lines cut
*Nset, nset=Set-1, generate
    1,  2704,     1
*Elset, elset=Set-1, generate
    1,  2601,     1
** Section: bone
*Solid Section, elset=Set-1, material=bone
,
*End Part
**  
*Part, name=indenter
*End Part
**  
**
** ASSEMBLY
**
*Assembly, name=Assembly
**  
*Instance, name=bone-1, part=bone
*End Instance
**  
*Instance, name=indenter-1, part=indenter
1.45120645698961e-14,         244.,           0.
*Surface, type=SEGMENTS, name=Surf-1
START,           0.,          40.
 LINE,          79.,          40.
 CIRCL,           0.,         -39.,           0.,          40.
*End Instance
**  
*Node
      1, 1.45120647e-14,         284.,           0.
*Nset, nset=RP_set
 1,
*Nset, nset=Set-3, instance=bone-1, generate
 2653,  2704,     1
*Elset, elset=Set-3, instance=bone-1, generate
 2551,  2601,     1
*Nset, nset=s_Set-2, instance=bone-1, generate
  1,  52,   1
*Elset, elset=s_Set-2, instance=bone-1, generate
  1,  51,   1
*Surface, type=NODE, name=s_Set-2_CNS_, internal
s_Set-2, 1.
** Constraint: Constraint-1
*Rigid Body, ref node=RP_set, analytical surface=indenter-1.Surf-1
*End Assembly
** 
** MATERIALS
** 
*Material, name=bone
*Elastic
15., 0.3
*Plastic
 0.15,    0.
 0.20, 0.004
 0.25, 0.007
** 
** INTERACTION PROPERTIES
** 
*Surface Interaction, name=IntProp-1
1.,
*Friction
0.,
*Surface Behavior, no separation, pressure-overclosure=HARD
** 
** BOUNDARY CONDITIONS
** 
** Name: BC-1 Type: Symmetry/Antisymmetry/Encastre
*Boundary
Set-3, ENCASTRE
** 
** INTERACTIONS
** 
** Interaction: Int-1
*Contact Pair, interaction=IntProp-1, small sliding, type=SURFACE TO SURFACE, adjust=0.0
s_Set-2_CNS_, indenter-1.Surf-1
** ----------------------------------------------------------------
** 
** STEP: Step-1
** 
*Step, name=Step-1, nlgeom=YES, inc=10000
*Static, stabilize=0.0002, allsdtol=0.05, continue=NO
0.01, 1., 1e-05, 0.02
** 
** BOUNDARY CONDITIONS
** 
** Name: BC-2 Type: Displacement/Rotation
*Boundary
RP_set, 1, 1
RP_set, 2, 2, -4.299
RP_set, 6, 6
** 
** CONTROLS
** 
*Controls, reset
*Controls, parameters=time incrementation
, , , , , , , 20, , , 
** 
** OUTPUT REQUESTS
** 
*Restart, write, frequency=0
** 
** FIELD OUTPUT: F-Output-2
** 
*Output, field
*Node Output, nset=RP_set
RF, U
** 
** FIELD OUTPUT: F-Output-1
** 
*Output, field, variable=PRESELECT
** 
** HISTORY OUTPUT: H-Output-1
** 
*Output, history, variable=PRESELECT
*End Step
